This is my note one.
This is master-slave-one.1.
New line.
child 2